-------------------------------------------------------
          Amber 18 PMEMD                              2018
          -------------------------------------------------------

  [-O]verwriting output

File Assignments:

 Here is the input file:

&cntrl
  timlim = 999999, nmropt = 0,       imin = 0,
  ntx    = 1,       irest  = 0,       ntrx = 1,      ntxo   = 1,
  ntpr   = 500,     ntwx   = 500,     ntwv = 0,      ntwe   = 0,
  ntwr   = 5000,
  ntf    = 2,       ntb    = 2,
  cut    = 10.0,    nsnb   = 20,
  nstlim = 10000,   nscm   = 2500,   iwrap = 1,
  t      = 0.0,     dt     = 0.002,
  temp0  = 300.0,   tempi  = 200.0,    tautp=0.5,
  ntt    = 1,
  ntp    =1 ,       taup = 1.0,
  ntc    = 2,       tol    = 0.00001,
  ibelly=0, ntr=1,
  restraintmask="!:WAT" , restraint_wt=10.0,
&end

Note: ig = -1. Setting random seed to   391251 based on wallclock time in
      microseconds.

--------------------------------------------------------------------------------
   1.  RESOURCE   USE:
--------------------------------------------------------------------------------

 getting box info from netcdf restart file
 NATOM  =   91625 NTYPES =      15 NBONH =   90984 MBONA  =     666
 NTHETH =    1363 MTHETA =     883 NPHIH =    2903 MPHIA  =    2471
 NHPARM =       0 NPARM  =       0 NNB   =  127310 NRES   =   30204
 NBONA  =     666 NTHETA =     883 NPHIA =    2471 NUMBND =      55
 NUMANG =     118 NPTRA  =     124 NATYP =      29 NPHB   =       1
 IFBOX  =       2 NMXRS  =      24 IFCAP =       0 NEXTRA =       0
 NCOPY  =       0

     BOX TYPE: TRUNCATED OCTAHEDRON

--------------------------------------------------------------------------------
   2.  CONTROL  DATA  FOR  THE  RUN
--------------------------------------------------------------------------------

default_name

General flags:
     imin    =       0, nmropt  =       0

Nature and format of input:
     ntx     =       1, irest   =       0, ntrx    =       1

Nature and format of output:
     ntxo    =       1, ntpr    =     500, ntrx    =       1, ntwr    =    5000
     iwrap   =       1, ntwx    =     500, ntwv    =       0, ntwe    =       0
     ioutfm  =       1, ntwprt  =       0, idecomp =       0, rbornstat=      0

Potential function:
     ntf     =       2, ntb     =       2, igb     =       0, nsnb    =      20
     ipol    =       0, gbsa    =       0, iesp    =       0
     dielc   =   1.00000, cut     =  10.00000, intdiel =   1.00000

Frozen or restrained atoms:
     ibelly  =       0, ntr     =       1
     restraint_wt =  10.00000

Molecular dynamics:
     nstlim  =     10000, nscm    =         0, nrespa  =         1
     t       =   0.00000, dt      =   0.00200, vlimit  =  -1.00000

Berendsen (weak-coupling) temperature regulation:
     temp0   = 300.00000, tempi   = 200.00000, tautp   =   0.50000

Pressure regulation:
     ntp     =       1
     pres0   =   1.00000, comp    =  44.60000, taup    =   1.00000

SHAKE:
     ntc     =       2, jfastw  =       0
     tol     =   0.00001

Ewald parameters:
     verbose =       0, ew_type =       0, nbflag  =       1, use_pme =       1
     vdwmeth =       1, eedmeth =       1, netfrc  =       1
     Box X =  109.052   Box Y =  109.052   Box Z =  109.052
     Alpha =  109.471   Beta  =  109.471   Gamma =  109.471
     NFFT1 =  112       NFFT2 =  112       NFFT3 =  112
     Cutoff=   10.000   Tol   =0.100E-04
     Ewald Coefficient =  0.27511
     Interpolation order =    4

    LOADING THE CONSTRAINED ATOMS AS GROUPS

   5.  REFERENCE ATOM COORDINATES

  default_name
     Mask !:WAT; matches  1244 atoms

--------------------------------------------------------------------------------
   3.  ATOMIC COORDINATES AND VELOCITIES
--------------------------------------------------------------------------------

default_name
 begin time read from input coords =     0.000 ps

 Number of triangulated 3-point waters found:    30127

     Sum of charges from parm topology file =  15.99999991
     Assuming uniform neutralizing plasma

--------------------------------------------------------------------------------
   4.  RESULTS
 NSTEP =        0   TIME(PS) =       0.000  TEMP(K) =   299.01  PRESS = -5142.7
 Etot   =   -349504.6171  EKtot   =     54633.6499  EPtot      =   -404138.2670
 BOND   =        30.5658  ANGLE   =       222.1251  DIHED      =      1115.3312
 1-4 NB =       265.6608  1-4 EEL =      4679.1197  VDWAALS    =     69775.4347
 EELEC  =   -480226.5044  EHBOND  =         0.0000  RESTRAINT  =         0.0000
 EKCMT  =     17961.2136  VIRIAL  =    128813.1961  VOLUME     =    998333.4896
                                                    Density    =         0.9177
 ------------------------------------------------------------------------------

      A V E R A G E S   O V E R      20 S T E P S

 NSTEP =    10000   TIME(PS) =      20.000  TEMP(K) =   292.80  PRESS =   -22.6
 Etot   =   -237153.4218  EKtot   =     53497.9557  EPtot      =   -290651.3775
 BOND   =       226.5708  ANGLE   =       610.6549  DIHED      =      1095.3596
 1-4 NB =       285.3112  1-4 EEL =      4651.6254  VDWAALS    =     43425.4814
 EELEC  =   -341243.6650  EHBOND  =         0.0000  RESTRAINT  =       297.2841
 EAMBER (non-restraint)  =   -290948.6616
 EKCMT  =     26489.8686  VIRIAL  =     26954.7225  VOLUME     =    928006.6883
                                                    Density    =         0.9873
 ------------------------------------------------------------------------------

      R M S  F L U C T U A T I O N S

 NSTEP =    10000   TIME(PS) =      20.000  TEMP(K) =    16.12  PRESS =   140.1
 Etot   =      8541.7542  EKtot   =      2945.1896  EPtot      =      5612.8695
 BOND   =        16.0129  ANGLE   =        27.6352  DIHED      =        12.1074
 1-4 NB =         5.6225  1-4 EEL =        15.5296  VDWAALS    =      2199.0787
 EELEC  =      7760.8158  EHBOND  =         0.0000  RESTRAINT  =        12.1690
 EAMBER (non-restraint)  =      5600.7006
 EKCMT  =      1138.7767  VIRIAL  =      1932.7692  VOLUME     =      4378.6023
                                                    Density    =         0.0046
 ------------------------------------------------------------------------------
