-------------------------------------------------------
          Amber 22 PMEMD                              2022
          -------------------------------------------------------

  [-O]verwriting output

File Assignments:

 Here is the input file:

&cntrl
  timlim = 999999, nmropt = 0,       imin = 0,
  ntx    = 1,       irest  = 0,       ntrx = 1,      ntxo   = 1,
  ntpr   = 500,     ntwx   = 500,     ntwv = 0,      ntwe   = 0,
  ntwr   = 5000,
  ntf    = 2,       ntb    = 2,
  cut    = 10.0,    nsnb   = 20,
  nstlim = 10000,   nscm   = 2500,   iwrap = 1,
  t      = 0.0,     dt     = 0.002,
  temp0  = 300.0,   tempi  = 200.0,    tautp=0.5,
  ntt    = 1,
  ntp    =1 ,       taup = 1.0,
  ntc    = 2,       tol    = 0.00001,
  ibelly=0, ntr=1,
  restraintmask="!:WAT" , restraint_wt=10.0,
&end

Note: ig = -1. Setting random seed to   949840 based on wallclock time in
      microseconds.

--------------------------------------------------------------------------------
   1.  RESOURCE   USE:
--------------------------------------------------------------------------------

 getting box info from netcdf restart file
 NATOM  =   39319 NTYPES =      12 NBONH =   38673 MBONA  =     650
 NTHETH =    1376 MTHETA =     856 NPHIH =    2964 MPHIA  =    2532
 NHPARM =       0 NPARM  =       0 NNB   =   57446 NRES   =   12795
 NBONA  =     650 NTHETA =     856 NPHIA =    2532 NUMBND =      40
 NUMANG =      90 NPTRA  =     113 NATYP =      21 NPHB   =       0
 IFBOX  =       1 NMXRS  =      24 IFCAP =       0 NEXTRA =       0
 NCOPY  =       0

     BOX TYPE: RECTILINEAR

--------------------------------------------------------------------------------
   2.  CONTROL  DATA  FOR  THE  RUN
--------------------------------------------------------------------------------

default_name

General flags:
     imin    =       0, nmropt  =       0

Nature and format of input:
     ntx     =       1, irest   =       0, ntrx    =       1

Nature and format of output:
     ntxo    =       1, ntpr    =     500, ntrx    =       1, ntwr    =    5000
     iwrap   =       1, ntwx    =     500, ntwv    =       0, ntwe    =       0
     ioutfm  =       1, ntwprt  =       0, idecomp =       0, rbornstat=      0

Potential function:
     ntf     =       2, ntb     =       2, igb     =       0, nsnb    =      20
     ipol    =       0, gbsa    =       0, iesp    =       0
     dielc   =   1.00000, cut     =  10.00000, intdiel =   1.00000

Frozen or restrained atoms:
     ibelly  =       0, ntr     =       1
     restraint_wt =  10.00000

Molecular dynamics:
     nstlim  =     10000, nscm    =         0, nrespa  =         1
     t       =   0.00000, dt      =   0.00200, vlimit  =  -1.00000

Berendsen (weak-coupling) temperature regulation:
     temp0   = 300.00000, tempi   = 200.00000, tautp   =   0.50000

Pressure regulation:
     ntp     =       1
     pres0   =   1.00000, comp    =  44.60000, taup    =   1.00000

SHAKE:
     ntc     =       2, jfastw  =       0
     tol     =   0.00001

Ewald parameters:
     verbose =       0, ew_type =       0, nbflag  =       1, use_pme =       1
     vdwmeth =       1, eedmeth =       1, netfrc  =       1
     Box X =   72.559   Box Y =   80.729   Box Z =   84.432
     Alpha =   90.000   Beta  =   90.000   Gamma =   90.000
     NFFT1 =   80       NFFT2 =   84       NFFT3 =   96
     Cutoff=   10.000   Tol   =0.100E-04
     Ewald Coefficient =  0.27511
     Interpolation order =    4

    LOADING THE CONSTRAINED ATOMS AS GROUPS

   5.  REFERENCE ATOM COORDINATES

  default_name
     Mask !:WAT; matches  1258 atoms

--------------------------------------------------------------------------------
   3.  ATOMIC COORDINATES AND VELOCITIES
--------------------------------------------------------------------------------

default_name
 begin time read from input coords =     0.000 ps

 Number of triangulated 3-point waters found:    12687

     Sum of charges from parm topology file =   3.99999986
     Assuming uniform neutralizing plasma

--------------------------------------------------------------------------------
   4.  RESULTS
 NSTEP =        0   TIME(PS) =       0.000  TEMP(K) =   297.73  PRESS = -2960.5
 Etot   =   -144170.5044  EKtot   =     23454.3882  EPtot      =   -167624.8926
 BOND   =        37.8814  ANGLE   =       164.6491  DIHED      =      1875.9161
 1-4 NB =       266.4108  1-4 EEL =      4925.2590  VDWAALS    =     31801.8249
 EELEC  =   -206696.8340  EHBOND  =         0.0000  RESTRAINT  =         0.0000
 EKCMT  =      7589.2825  VIRIAL  =     39202.0984  VOLUME     =    494567.5644
                                                    Density    =         0.7982
 ------------------------------------------------------------------------------

      A V E R A G E S   O V E R      20 S T E P S

 NSTEP =    10000   TIME(PS) =      20.000  TEMP(K) =   293.84  PRESS =  -203.6
 Etot   =    -98101.6810  EKtot   =     23147.6664  EPtot      =   -121249.3474
 BOND   =       221.5174  ANGLE   =       589.4716  DIHED      =      1685.3129
 1-4 NB =       275.9881  1-4 EEL =      4843.9890  VDWAALS    =     17673.0350
 EELEC  =   -146958.6184  EHBOND  =         0.0000  RESTRAINT  =       419.9568
 EAMBER (non-restraint)  =   -121669.3042
 EKCMT  =     11214.7394  VIRIAL  =     13150.5367  VOLUME     =    431657.4404
                                                    Density    =         0.9179
 ------------------------------------------------------------------------------

      R M S  F L U C T U A T I O N S

 NSTEP =    10000   TIME(PS) =      20.000  TEMP(K) =    15.68  PRESS =   113.4
 Etot   =      2973.2378  EKtot   =      1235.3247  EPtot      =      1773.6401
 BOND   =        16.5556  ANGLE   =        23.7930  DIHED      =        15.8293
 1-4 NB =         4.5328  1-4 EEL =        14.3978  VDWAALS    =      1011.7889
 EELEC  =      2714.2469  EHBOND  =         0.0000  RESTRAINT  =        23.4053
 EAMBER (non-restraint)  =      1750.2347
 EKCMT  =       456.7920  VIRIAL  =      1050.4615  VOLUME     =     26261.0088
                                                    Density    =         0.0547
 ------------------------------------------------------------------------------
