-------------------------------------------------------
          Amber 18 PMEMD                              2018
          -------------------------------------------------------

  [-O]verwriting output

File Assignments:

 Here is the input file:

equilibrate
 &cntrl
  imin=0,irest=1,ntx=5,
  nstlim=2500000,dt=0.002,
  ntc=2,ntf=2,ig=-1,
  cut=10.0, ntb=2, ntp=1, taup=2.0,
  ntpr=1000, ntwx=1000,
  ntt=3, gamma_ln=2.0,
  temp0=300.0,
 /

Note: ig = -1. Setting random seed to   542738 based on wallclock time in
      microseconds.

--------------------------------------------------------------------------------
   1.  RESOURCE   USE:
--------------------------------------------------------------------------------

 getting box info from netcdf restart file
 NATOM  =   17022 NTYPES =      16 NBONH =   12531 MBONA  =    4499
 NTHETH =     996 MTHETA =     630 NPHIH =    1915 MPHIA  =    1560
 NHPARM =       0 NPARM  =       0 NNB   =   33139 NRES   =    4095
 NBONA  =    4499 NTHETA =     630 NPHIA =    1560 NUMBND =      29
 NUMANG =      57 NPTRA  =      36 NATYP =      21 NPHB   =       1
 IFBOX  =       1 NMXRS  =      26 IFCAP =       0 NEXTRA =    4031
 NCOPY  =       0

     BOX TYPE: RECTILINEAR

--------------------------------------------------------------------------------
   2.  CONTROL  DATA  FOR  THE  RUN
--------------------------------------------------------------------------------

General flags:
     imin    =       0, nmropt  =       0

Nature and format of input:
     ntx     =       5, irest   =       1, ntrx    =       1

Nature and format of output:
     ntxo    =       2, ntpr    =    1000, ntrx    =       1, ntwr    = 2500000
     iwrap   =       0, ntwx    =    1000, ntwv    =       0, ntwe    =       0
     ioutfm  =       1, ntwprt  =       0, idecomp =       0, rbornstat=      0

Potential function:
     ntf     =       2, ntb     =       2, igb     =       0, nsnb    =      25
     ipol    =       0, gbsa    =       0, iesp    =       0
     dielc   =   1.00000, cut     =  10.00000, intdiel =   1.00000

Frozen or restrained atoms:
     ibelly  =       0, ntr     =       0

Molecular dynamics:
     nstlim  =   2500000, nscm    =      1000, nrespa  =         1
     t       =   0.00000, dt      =   0.00200, vlimit  =  -1.00000

Langevin dynamics temperature regulation:
     ig      =  542738
     temp0   = 300.00000, tempi   =   0.00000, gamma_ln=   2.00000

Pressure regulation:
     ntp     =       1
     pres0   =   1.00000, comp    =  44.60000, taup    =   2.00000

SHAKE:
     ntc     =       2, jfastw  =       0
     tol     =   0.00001

Extra-points options:
     frameon =       1, chngmask=       1

Ewald parameters:
     verbose =       0, ew_type =       0, nbflag  =       1, use_pme =       1
     vdwmeth =       1, eedmeth =       1, netfrc  =       1
     Box X =   46.716   Box Y =   49.241   Box Z =   56.037
     Alpha =   90.000   Beta  =   90.000   Gamma =   90.000
     NFFT1 =   48       NFFT2 =   56       NFFT3 =   64
     Cutoff=   10.000   Tol   =0.100E-04
     Ewald Coefficient =  0.27511
     Interpolation order =    4

--------------------------------------------------------------------------------
   3.  ATOMIC COORDINATES AND VELOCITIES
--------------------------------------------------------------------------------

 begin time read from input coords =  1000.000 ps

 Number of triangulated 3-point waters found:     4031

     Sum of charges from parm topology file =   0.00000440
     Forcing neutrality...

--------------------------------------------------------------------------------
   4.  RESULTS
 NSTEP =     1000   TIME(PS) =    1002.000  TEMP(K) =   298.44  PRESS =    58.6
 Etot   =    -39437.5360  EKtot   =      7840.7778  EPtot      =    -47278.3138
 BOND   =       172.2317  ANGLE   =       430.0014  DIHED      =       606.4128
 1-4 NB =       212.8457  1-4 EEL =      1759.4160  VDWAALS    =      7706.7197
 EELEC  =    -58165.9411  EHBOND  =         0.0000  RESTRAINT  =         0.0000
 EKCMT  =      3654.1851  VIRIAL  =      3491.0797  VOLUME     =    128902.6934
                                                    Density    =         1.0222
 ------------------------------------------------------------------------------

      A V E R A G E S   O V E R    2500 S T E P S

 NSTEP =  2500000   TIME(PS) =    6000.000  TEMP(K) =   300.01  PRESS =     1.4
 Etot   =    -39259.7688  EKtot   =      7882.1268  EPtot      =    -47141.8956
 BOND   =       179.4703  ANGLE   =       429.3182  DIHED      =       596.1569
 1-4 NB =       204.3900  1-4 EEL =      1780.9991  VDWAALS    =      7649.0051
 EELEC  =    -57981.2352  EHBOND  =         0.0000  RESTRAINT  =         0.0000
 EKCMT  =      3623.9259  VIRIAL  =      3619.9541  VOLUME     =    129129.1439
                                                    Density    =         1.0205
 ------------------------------------------------------------------------------

      R M S  F L U C T U A T I O N S

 NSTEP =  2500000   TIME(PS) =    6000.000  TEMP(K) =     2.60  PRESS =   194.3
 Etot   =       125.0122  EKtot   =        68.3861  EPtot      =       104.3464
 BOND   =        11.4219  ANGLE   =        16.5892  DIHED      =         9.7416
 1-4 NB =         5.9694  1-4 EEL =        19.5279  VDWAALS    =       104.3408
 EELEC  =       170.7422  EHBOND  =         0.0000  RESTRAINT  =         0.0000
 EKCMT  =        46.9305  VIRIAL  =       543.6261  VOLUME     =       255.4735
                                                    Density    =         0.0020
 ------------------------------------------------------------------------------
