-------------------------------------------------------
          Amber 22 PMEMD                              2022
          -------------------------------------------------------

  [-O]verwriting output

File Assignments:

 Here is the input file:

&cntrl
  timlim = 999999, nmropt = 0,       imin = 0,
  ntx    = 1,       irest  = 0,       ntrx = 1,      ntxo   = 1,
  ntpr   = 500,     ntwx   = 500,     ntwv = 0,      ntwe   = 0,
  ntwr   = 5000,
  ntf    = 2,       ntb    = 2,
  cut    = 10.0,    nsnb   = 20,
  nstlim = 10000,   nscm   = 2500,   iwrap = 1,
  t      = 0.0,     dt     = 0.002,
  temp0  = 300.0,   tempi  = 200.0,    tautp=0.5,
  ntt    = 1,
  ntp    =1 ,       taup = 1.0,
  ntc    = 2,       tol    = 0.00001,
  ibelly=0, ntr=1,
  restraintmask="!:WAT" , restraint_wt=10.0,
&end

Note: ig = -1. Setting random seed to   462478 based on wallclock time in
      microseconds.

--------------------------------------------------------------------------------
   1.  RESOURCE   USE:
--------------------------------------------------------------------------------

 getting box info from netcdf restart file
 NATOM  =   12344 NTYPES =      12 NBONH =   12246 MBONA  =      98
 NTHETH =     228 MTHETA =     130 NPHIH =     434 MPHIA  =     400
 NHPARM =       0 NPARM  =       0 NNB   =   17266 NRES   =    4062
 NBONA  =      98 NTHETA =     130 NPHIA =     400 NUMBND =      27
 NUMANG =      55 NPTRA  =      78 NATYP =      19 NPHB   =       0
 IFBOX  =       1 NMXRS  =      22 IFCAP =       0 NEXTRA =       0
 NCOPY  =       0

     BOX TYPE: RECTILINEAR

--------------------------------------------------------------------------------
   2.  CONTROL  DATA  FOR  THE  RUN
--------------------------------------------------------------------------------

default_name

General flags:
     imin    =       0, nmropt  =       0

Nature and format of input:
     ntx     =       1, irest   =       0, ntrx    =       1

Nature and format of output:
     ntxo    =       1, ntpr    =     500, ntrx    =       1, ntwr    =    5000
     iwrap   =       1, ntwx    =     500, ntwv    =       0, ntwe    =       0
     ioutfm  =       1, ntwprt  =       0, idecomp =       0, rbornstat=      0

Potential function:
     ntf     =       2, ntb     =       2, igb     =       0, nsnb    =      20
     ipol    =       0, gbsa    =       0, iesp    =       0
     dielc   =   1.00000, cut     =  10.00000, intdiel =   1.00000

Frozen or restrained atoms:
     ibelly  =       0, ntr     =       1
     restraint_wt =  10.00000

Molecular dynamics:
     nstlim  =     10000, nscm    =         0, nrespa  =         1
     t       =   0.00000, dt      =   0.00200, vlimit  =  -1.00000

Berendsen (weak-coupling) temperature regulation:
     temp0   = 300.00000, tempi   = 200.00000, tautp   =   0.50000

Pressure regulation:
     ntp     =       1
     pres0   =   1.00000, comp    =  44.60000, taup    =   1.00000

SHAKE:
     ntc     =       2, jfastw  =       0
     tol     =   0.00001

Ewald parameters:
     verbose =       0, ew_type =       0, nbflag  =       1, use_pme =       1
     vdwmeth =       1, eedmeth =       1, netfrc  =       1
     Box X =   72.559   Box Y =   52.874   Box Z =   42.040
     Alpha =   90.000   Beta  =   90.000   Gamma =   90.000
     NFFT1 =   80       NFFT2 =   56       NFFT3 =   48
     Cutoff=   10.000   Tol   =0.100E-04
     Ewald Coefficient =  0.27511
     Interpolation order =    4

    LOADING THE CONSTRAINED ATOMS AS GROUPS

   5.  REFERENCE ATOM COORDINATES

  default_name
     Mask !:WAT; matches   200 atoms

--------------------------------------------------------------------------------
   3.  ATOMIC COORDINATES AND VELOCITIES
--------------------------------------------------------------------------------

default_name
 begin time read from input coords =     0.000 ps

 Number of triangulated 3-point waters found:     4048

     Sum of charges from parm topology file =  -0.00000002
     Forcing neutrality...

--------------------------------------------------------------------------------
   4.  RESULTS
 NSTEP =        0   TIME(PS) =       0.000  TEMP(K) =   299.05  PRESS = -2916.1
 Etot   =    -45746.6496  EKtot   =      7364.7098  EPtot      =    -53111.3594
 BOND   =         3.0400  ANGLE   =        11.1480  DIHED      =       123.2797
 1-4 NB =        55.3301  1-4 EEL =       772.1013  VDWAALS    =     10103.5422
 EELEC  =    -64179.8007  EHBOND  =         0.0000  RESTRAINT  =         0.0000
 EKCMT  =      2444.1849  VIRIAL  =     12599.1409  VOLUME     =    161287.8481
                                                    Density    =         0.7651
 ------------------------------------------------------------------------------

      A V E R A G E S   O V E R      20 S T E P S

 NSTEP =    10000   TIME(PS) =      20.000  TEMP(K) =   293.37  PRESS =  -187.8
 Etot   =    -31533.1530  EKtot   =      7224.8256  EPtot      =    -38757.9786
 BOND   =        31.3998  ANGLE   =        77.0301  DIHED      =       133.5338
 1-4 NB =        50.5963  1-4 EEL =       762.9226  VDWAALS    =      5779.4085
 EELEC  =    -45638.8322  EHBOND  =         0.0000  RESTRAINT  =        45.9625
 EAMBER (non-restraint)  =    -38803.9411
 EKCMT  =      3585.7705  VIRIAL  =      4155.5068  VOLUME     =    135544.5826
                                                    Density    =         0.9153
 ------------------------------------------------------------------------------

      R M S  F L U C T U A T I O N S

 NSTEP =    10000   TIME(PS) =      20.000  TEMP(K) =    16.56  PRESS =   215.9
 Etot   =       870.8176  EKtot   =       407.8598  EPtot      =       496.8832
 BOND   =         4.7899  ANGLE   =         4.7659  DIHED      =         1.9282
 1-4 NB =         2.3035  1-4 EEL =         6.3297  VDWAALS    =       304.0556
 EELEC  =       774.3379  EHBOND  =         0.0000  RESTRAINT  =         4.0603
 EAMBER (non-restraint)  =       492.8229
 EKCMT  =       152.3448  VIRIAL  =       655.2601  VOLUME     =     10076.2544
                                                    Density    =         0.0653
 ------------------------------------------------------------------------------
