-------------------------------------------------------
          Amber 18 PMEMD                              2018
          -------------------------------------------------------

  [-O]verwriting output

File Assignments:

 Here is the input file:

heat gfpmut
 &cntrl
  imin=0,irest=1,ntx=5,
  nstlim=250000,dt=0.002,
  ntc=2,ntf=2,
  cut=10.0, ntb=2, ntp=1, taup=1.0,
  ntpr=500, ntwx=500,
  ntt=3, gamma_ln=2.0,
  temp0=300.0,iwrap=1,
  ntr=1, restraintmask=':1-77',
  restraint_wt=10.0,
 /

Note: ig = -1. Setting random seed to   976633 based on wallclock time in
      microseconds.

--------------------------------------------------------------------------------
   1.  RESOURCE   USE:
--------------------------------------------------------------------------------

 getting box info from netcdf restart file
 NATOM  =   91625 NTYPES =      15 NBONH =   90984 MBONA  =     666
 NTHETH =    1363 MTHETA =     883 NPHIH =    2903 MPHIA  =    2471
 NHPARM =       0 NPARM  =       0 NNB   =  127310 NRES   =   30204
 NBONA  =     666 NTHETA =     883 NPHIA =    2471 NUMBND =      55
 NUMANG =     118 NPTRA  =     124 NATYP =      29 NPHB   =       1
 IFBOX  =       2 NMXRS  =      24 IFCAP =       0 NEXTRA =       0
 NCOPY  =       0

     BOX TYPE: TRUNCATED OCTAHEDRON

--------------------------------------------------------------------------------
   2.  CONTROL  DATA  FOR  THE  RUN
--------------------------------------------------------------------------------

default_name

General flags:
     imin    =       0, nmropt  =       0

Nature and format of input:
     ntx     =       5, irest   =       1, ntrx    =       1

Nature and format of output:
     ntxo    =       2, ntpr    =     500, ntrx    =       1, ntwr    =  250000
     iwrap   =       1, ntwx    =     500, ntwv    =       0, ntwe    =       0
     ioutfm  =       1, ntwprt  =       0, idecomp =       0, rbornstat=      0

Potential function:
     ntf     =       2, ntb     =       2, igb     =       0, nsnb    =      25
     ipol    =       0, gbsa    =       0, iesp    =       0
     dielc   =   1.00000, cut     =  10.00000, intdiel =   1.00000

Frozen or restrained atoms:
     ibelly  =       0, ntr     =       1
     restraint_wt =  10.00000

Molecular dynamics:
     nstlim  =    250000, nscm    =         0, nrespa  =         1
     t       =   0.00000, dt      =   0.00200, vlimit  =  -1.00000

Langevin dynamics temperature regulation:
     ig      =  976633
     temp0   = 300.00000, tempi   =   0.00000, gamma_ln=   2.00000

Pressure regulation:
     ntp     =       1
     pres0   =   1.00000, comp    =  44.60000, taup    =   1.00000

SHAKE:
     ntc     =       2, jfastw  =       0
     tol     =   0.00001

Ewald parameters:
     verbose =       0, ew_type =       0, nbflag  =       1, use_pme =       1
     vdwmeth =       1, eedmeth =       1, netfrc  =       1
     Box X =  106.396   Box Y =  106.396   Box Z =  106.396
     Alpha =  109.471   Beta  =  109.471   Gamma =  109.471
     NFFT1 =  108       NFFT2 =  108       NFFT3 =  108
     Cutoff=   10.000   Tol   =0.100E-04
     Ewald Coefficient =  0.27511
     Interpolation order =    4

    LOADING THE CONSTRAINED ATOMS AS GROUPS

   5.  REFERENCE ATOM COORDINATES

  default_name
     Mask :1-77; matches  1244 atoms

--------------------------------------------------------------------------------
   3.  ATOMIC COORDINATES AND VELOCITIES
--------------------------------------------------------------------------------

default_name
 begin time read from input coords =   500.000 ps

 Number of triangulated 3-point waters found:    30127

     Sum of charges from parm topology file =  15.99999991
     Assuming uniform neutralizing plasma

--------------------------------------------------------------------------------
   4.  RESULTS
 NSTEP =      500   TIME(PS) =     501.000  TEMP(K) =   300.52  PRESS =   -19.5
 Etot   =   -233679.2306  EKtot   =     54908.3477  EPtot      =   -288587.5783
 BOND   =       244.7747  ANGLE   =       621.3646  DIHED      =       902.8318
 1-4 NB =       265.8075  1-4 EEL =      4613.2356  VDWAALS    =     42216.8310
 EELEC  =   -337744.9491  EHBOND  =         0.0000  RESTRAINT  =       292.5256
 EAMBER (non-restraint)  =   -288880.1039
 EKCMT  =     27190.1833  VIRIAL  =     27581.3645  VOLUME     =    927610.8401
                                                    Density    =         0.9877
 ------------------------------------------------------------------------------

      A V E R A G E S   O V E R     500 S T E P S

 NSTEP =   250000   TIME(PS) =    1000.000  TEMP(K) =   300.08  PRESS =     1.9
 Etot   =   -233596.4099  EKtot   =     54827.9317  EPtot      =   -288424.3416
 BOND   =       231.3705  ANGLE   =       605.1241  DIHED      =       902.0051
 1-4 NB =       265.6359  1-4 EEL =      4609.5030  VDWAALS    =     42292.6827
 EELEC  =   -337626.2749  EHBOND  =         0.0000  RESTRAINT  =       295.6120
 EAMBER (non-restraint)  =   -288719.9536
 EKCMT  =     27031.9459  VIRIAL  =     26994.4488  VOLUME     =    927409.8955
                                                    Density    =         0.9879
 ------------------------------------------------------------------------------

      R M S  F L U C T U A T I O N S

 NSTEP =   250000   TIME(PS) =    1000.000  TEMP(K) =     0.99  PRESS =    68.2
 Etot   =       309.0917  EKtot   =       181.1471  EPtot      =       261.4432
 BOND   =        12.3604  ANGLE   =        16.1179  DIHED      =         8.3876
 1-4 NB =         5.1077  1-4 EEL =        12.6115  VDWAALS    =       237.9965
 EELEC  =       395.1256  EHBOND  =         0.0000  RESTRAINT  =         9.9372
 EAMBER (non-restraint)  =       251.5060
 EKCMT  =       128.3832  VIRIAL  =      1369.5683  VOLUME     =       783.5138
                                                    Density    =         0.0008
 ------------------------------------------------------------------------------
