-------------------------------------------------------
          Amber 18 PMEMD                              2018
          -------------------------------------------------------

  [-O]verwriting output

File Assignments:

 Here is the input file:

equilibrate
 &cntrl
  imin=0,irest=1,ntx=5,
  nstlim=5000000,dt=0.002,
  ntc=2,ntf=2,ig=-1,
  cut=10.0, ntb=2, ntp=1, taup=2.0,
  ntpr=1000, ntwx=1000,
  ntt=3, gamma_ln=2.0,
  temp0=300.0,
 /

Note: ig = -1. Setting random seed to   248503 based on wallclock time in
      microseconds.

--------------------------------------------------------------------------------
   1.  RESOURCE   USE:
--------------------------------------------------------------------------------

 getting box info from netcdf restart file
 NATOM  =   91625 NTYPES =      15 NBONH =   90984 MBONA  =     666
 NTHETH =    1363 MTHETA =     883 NPHIH =    2903 MPHIA  =    2471
 NHPARM =       0 NPARM  =       0 NNB   =  127310 NRES   =   30204
 NBONA  =     666 NTHETA =     883 NPHIA =    2471 NUMBND =      55
 NUMANG =     118 NPTRA  =     124 NATYP =      29 NPHB   =       1
 IFBOX  =       2 NMXRS  =      24 IFCAP =       0 NEXTRA =       0
 NCOPY  =       0

     BOX TYPE: TRUNCATED OCTAHEDRON

--------------------------------------------------------------------------------
   2.  CONTROL  DATA  FOR  THE  RUN
--------------------------------------------------------------------------------

default_name

General flags:
     imin    =       0, nmropt  =       0

Nature and format of input:
     ntx     =       5, irest   =       1, ntrx    =       1

Nature and format of output:
     ntxo    =       2, ntpr    =    1000, ntrx    =       1, ntwr    = 5000000
     iwrap   =       0, ntwx    =    1000, ntwv    =       0, ntwe    =       0
     ioutfm  =       1, ntwprt  =       0, idecomp =       0, rbornstat=      0

Potential function:
     ntf     =       2, ntb     =       2, igb     =       0, nsnb    =      25
     ipol    =       0, gbsa    =       0, iesp    =       0
     dielc   =   1.00000, cut     =  10.00000, intdiel =   1.00000

Frozen or restrained atoms:
     ibelly  =       0, ntr     =       0

Molecular dynamics:
     nstlim  =   5000000, nscm    =      1000, nrespa  =         1
     t       =   0.00000, dt      =   0.00200, vlimit  =  -1.00000

Langevin dynamics temperature regulation:
     ig      =  248503
     temp0   = 300.00000, tempi   =   0.00000, gamma_ln=   2.00000

Pressure regulation:
     ntp     =       1
     pres0   =   1.00000, comp    =  44.60000, taup    =   2.00000

SHAKE:
     ntc     =       2, jfastw  =       0
     tol     =   0.00001

Ewald parameters:
     verbose =       0, ew_type =       0, nbflag  =       1, use_pme =       1
     vdwmeth =       1, eedmeth =       1, netfrc  =       1
     Box X =  106.398   Box Y =  106.398   Box Z =  106.398
     Alpha =  109.471   Beta  =  109.471   Gamma =  109.471
     NFFT1 =  108       NFFT2 =  108       NFFT3 =  108
     Cutoff=   10.000   Tol   =0.100E-04
     Ewald Coefficient =  0.27511
     Interpolation order =    4

--------------------------------------------------------------------------------
   3.  ATOMIC COORDINATES AND VELOCITIES
--------------------------------------------------------------------------------

default_name
 begin time read from input coords =  1000.000 ps

 Number of triangulated 3-point waters found:    30127

     Sum of charges from parm topology file =  15.99999991
     Assuming uniform neutralizing plasma

--------------------------------------------------------------------------------
   4.  RESULTS
 NSTEP =     1000   TIME(PS) =    1002.000  TEMP(K) =   301.13  PRESS =    30.8
 Etot   =   -233216.9292  EKtot   =     55020.9336  EPtot      =   -288237.8628
 BOND   =       239.4381  ANGLE   =       687.3346  DIHED      =       853.1802
 1-4 NB =       272.3128  1-4 EEL =      4622.3559  VDWAALS    =     42031.8582
 EELEC  =   -336944.3424  EHBOND  =         0.0000  RESTRAINT  =         0.0000
 EKCMT  =     27089.3578  VIRIAL  =     26473.2181  VOLUME     =    926691.0531
                                                    Density    =         0.9887
 ------------------------------------------------------------------------------

      A V E R A G E S   O V E R    5000 S T E P S

 NSTEP =  5000000   TIME(PS) =   11000.000  TEMP(K) =   300.00  PRESS =     0.3
 Etot   =   -233999.2978  EKtot   =     54814.2404  EPtot      =   -288813.5382
 BOND   =       241.9377  ANGLE   =       650.7106  DIHED      =       814.8102
 1-4 NB =       281.7559  1-4 EEL =      4621.9765  VDWAALS    =     42237.5120
 EELEC  =   -337662.2412  EHBOND  =         0.0000  RESTRAINT  =         0.0000
 EKCMT  =     27023.6949  VIRIAL  =     27017.3185  VOLUME     =    927216.8510
                                                    Density    =         0.9881
 ------------------------------------------------------------------------------

      R M S  F L U C T U A T I O N S

 NSTEP =  5000000   TIME(PS) =   11000.000  TEMP(K) =     0.99  PRESS =    72.7
 Etot   =       317.0266  EKtot   =       180.1255  EPtot      =       256.9826
 BOND   =        13.2027  ANGLE   =        18.8958  DIHED      =        12.7233
 1-4 NB =         6.8827  1-4 EEL =        24.2216  VDWAALS    =       248.9778
 EELEC  =       400.1832  EHBOND  =         0.0000  RESTRAINT  =         0.0000
 EKCMT  =       126.9791  VIRIAL  =      1457.7873  VOLUME     =       622.4737
                                                    Density    =         0.0007
 ------------------------------------------------------------------------------
