-------------------------------------------------------
          Amber 22 PMEMD                              2022
          -------------------------------------------------------

  [-O]verwriting output

File Assignments:

 Here is the input file:

Production
 &cntrl
  imin=0,
  ntx=5,
  irest=1,
  nstlim=5000000,
  dt=0.002,
  ntf=2,
  ntc=2,
  temp0=300.0,
  ntpr=1000,
  ntwx=1000,
  cut=8.0,
  ntb=2,
  ntp=1,
  ntt=3,
  barostat=1,
  gamma_ln=2.0,
  ig=-1,
  plumed = 1,
  plumedfile = 'plumed.dat'
 /

Note: ig = -1. Setting random seed to   154924 based on wallclock time in
      microseconds.
PLUMED is on
PLUMED file is plumed.dat

--------------------------------------------------------------------------------
   1.  RESOURCE   USE:
--------------------------------------------------------------------------------

 getting box info from netcdf restart file
 NATOM  =   20649 NTYPES =      12 NBONH =   20233 MBONA  =     418
 NTHETH =     872 MTHETA =     550 NPHIH =    1894 MPHIA  =    1606
 NHPARM =       0 NPARM  =       0 NNB   =   30724 NRES   =    6685
 NBONA  =     418 NTHETA =     550 NPHIA =    1606 NUMBND =      40
 NUMANG =      90 NPTRA  =     113 NATYP =      21 NPHB   =       0
 IFBOX  =       1 NMXRS  =      24 IFCAP =       0 NEXTRA =       0
 NCOPY  =       0

     BOX TYPE: RECTILINEAR

--------------------------------------------------------------------------------
   2.  CONTROL  DATA  FOR  THE  RUN
--------------------------------------------------------------------------------

default_name

General flags:
     imin    =       0, nmropt  =       0

Nature and format of input:
     ntx     =       5, irest   =       1, ntrx    =       1

Nature and format of output:
     ntxo    =       2, ntpr    =    1000, ntrx    =       1, ntwr    = 5000000
     iwrap   =       0, ntwx    =    1000, ntwv    =       0, ntwe    =       0
     ioutfm  =       1, ntwprt  =       0, idecomp =       0, rbornstat=      0

Potential function:
     ntf     =       2, ntb     =       2, igb     =       0, nsnb    =      25
     ipol    =       0, gbsa    =       0, iesp    =       0
     dielc   =   1.00000, cut     =   8.00000, intdiel =   1.00000

Frozen or restrained atoms:
     ibelly  =       0, ntr     =       0

Molecular dynamics:
     nstlim  =   5000000, nscm    =      1000, nrespa  =         1
     t       =   0.00000, dt      =   0.00200, vlimit  =  -1.00000

Langevin dynamics temperature regulation:
     ig      =  154924
     temp0   = 300.00000, tempi   =   0.00000, gamma_ln=   2.00000

Pressure regulation:
     ntp     =       1
     pres0   =   1.00000, comp    =  44.60000, taup    =   1.00000

SHAKE:
     ntc     =       2, jfastw  =       0
     tol     =   0.00001

Ewald parameters:
     verbose =       0, ew_type =       0, nbflag  =       1, use_pme =       1
     vdwmeth =       1, eedmeth =       1, netfrc  =       1
     Box X =   66.298   Box Y =   58.136   Box Z =   54.430
     Alpha =   90.000   Beta  =   90.000   Gamma =   90.000
     NFFT1 =   64       NFFT2 =   64       NFFT3 =   56
     Cutoff=    8.000   Tol   =0.100E-04
     Ewald Coefficient =  0.34864
     Interpolation order =    4

--------------------------------------------------------------------------------
   3.  ATOMIC COORDINATES AND VELOCITIES
--------------------------------------------------------------------------------

default_name
 begin time read from input coords =   500.000 ps

 Number of triangulated 3-point waters found:     6615

     Sum of charges from parm topology file =   1.99999991
     Assuming uniform neutralizing plasma

--------------------------------------------------------------------------------
   4.  RESULTS
 NSTEP =     1000   TIME(PS) =     502.000  TEMP(K) =   299.94  PRESS =   178.3
 Etot   =    -51732.5469  EKtot   =     12431.4258  EPtot      =    -64163.9726
 BOND   =       155.4849  ANGLE   =       390.2235  DIHED      =       634.1821
 1-4 NB =       175.0466  1-4 EEL =      3070.8854  VDWAALS    =      9036.1429
 EELEC  =    -77625.9381  EHBOND  =         0.0000  RESTRAINT  =         0.0000
 EKCMT  =      5867.5431  VIRIAL  =      5064.1425  VOLUME     =    208657.3971
                                                    Density    =         0.9955
 ------------------------------------------------------------------------------

      A V E R A G E S   O V E R    5000 S T E P S

 NSTEP =  5000000   TIME(PS) =   10500.000  TEMP(K) =   300.06  PRESS =     1.1
 Etot   =    -52098.0253  EKtot   =     12436.6798  EPtot      =    -64534.7051
 BOND   =       158.0735  ANGLE   =       389.7574  DIHED      =       598.6356
 1-4 NB =       182.3462  1-4 EEL =      3110.6075  VDWAALS    =      8936.3347
 EELEC  =    -77910.4600  EHBOND  =         0.0000  RESTRAINT  =         0.0000
 EKCMT  =      5936.8390  VIRIAL  =      5916.1034  VOLUME     =    208110.0005
                                                    Density    =         0.9981
 ------------------------------------------------------------------------------

      R M S  F L U C T U A T I O N S

 NSTEP =  5000000   TIME(PS) =   10500.000  TEMP(K) =     2.02  PRESS =   129.9
 Etot   =       149.8959  EKtot   =        83.6970  EPtot      =       122.5925
 BOND   =        10.6904  ANGLE   =        16.2885  DIHED      =        10.8677
 1-4 NB =         6.2411  1-4 EEL =        22.3836  VDWAALS    =       112.6698
 EELEC  =       185.3848  EHBOND  =         0.0000  RESTRAINT  =         0.0000
 EKCMT  =        57.8969  VIRIAL  =       586.1879  VOLUME     =       376.0770
                                                    Density    =         0.0018
 ------------------------------------------------------------------------------
