-------------------------------------------------------
          Amber 18 PMEMD                              2018
          -------------------------------------------------------

  [-O]verwriting output

File Assignments:

 Here is the input file:

&cntrl
  timlim = 999999, nmropt = 0,       imin = 0,
  ntx    = 1,       irest  = 0,       ntrx = 1,      ntxo   = 1,
  ntpr   = 500,     ntwx   = 500,     ntwv = 0,      ntwe   = 0,
  ntwr   = 5000,
  ntf    = 2,       ntb    = 2,
  cut    = 10.0,    nsnb   = 20,
  nstlim = 10000,   nscm   = 2500,   iwrap = 1,
  t      = 0.0,     dt     = 0.002,
  temp0  = 300.0,   tempi  = 200.0,    tautp=0.5,
  ntt    = 1,
  ntp    =1 ,       taup = 1.0,
  ntc    = 2,       tol    = 0.00001,
  ibelly=0, ntr=1,
  restraintmask="!:WAT" , restraint_wt=10.0,
&end

Note: ig = -1. Setting random seed to   841880 based on wallclock time in
      microseconds.

--------------------------------------------------------------------------------
   1.  RESOURCE   USE:
--------------------------------------------------------------------------------

 getting box info from netcdf restart file
 NATOM  =  163463 NTYPES =      15 NBONH =  161166 MBONA  =    2338
 NTHETH =    4819 MTHETA =    3091 NPHIH =   10511 MPHIA  =    9047
 NHPARM =       0 NPARM  =       0 NNB   =  235854 NRES   =   53366
 NBONA  =    2338 NTHETA =    3091 NPHIA =    9047 NUMBND =      56
 NUMANG =     124 NPTRA  =     146 NATYP =      29 NPHB   =       1
 IFBOX  =       2 NMXRS  =      24 IFCAP =       0 NEXTRA =       0
 NCOPY  =       0

     BOX TYPE: TRUNCATED OCTAHEDRON

--------------------------------------------------------------------------------
   2.  CONTROL  DATA  FOR  THE  RUN
--------------------------------------------------------------------------------

default_name

General flags:
     imin    =       0, nmropt  =       0

Nature and format of input:
     ntx     =       1, irest   =       0, ntrx    =       1

Nature and format of output:
     ntxo    =       1, ntpr    =     500, ntrx    =       1, ntwr    =    5000
     iwrap   =       1, ntwx    =     500, ntwv    =       0, ntwe    =       0
     ioutfm  =       1, ntwprt  =       0, idecomp =       0, rbornstat=      0

Potential function:
     ntf     =       2, ntb     =       2, igb     =       0, nsnb    =      20
     ipol    =       0, gbsa    =       0, iesp    =       0
     dielc   =   1.00000, cut     =  10.00000, intdiel =   1.00000

Frozen or restrained atoms:
     ibelly  =       0, ntr     =       1
     restraint_wt =  10.00000

Molecular dynamics:
     nstlim  =     10000, nscm    =         0, nrespa  =         1
     t       =   0.00000, dt      =   0.00200, vlimit  =  -1.00000

Berendsen (weak-coupling) temperature regulation:
     temp0   = 300.00000, tempi   = 200.00000, tautp   =   0.50000

Pressure regulation:
     ntp     =       1
     pres0   =   1.00000, comp    =  44.60000, taup    =   1.00000

SHAKE:
     ntc     =       2, jfastw  =       0
     tol     =   0.00001

Ewald parameters:
     verbose =       0, ew_type =       0, nbflag  =       1, use_pme =       1
     vdwmeth =       1, eedmeth =       1, netfrc  =       1
     Box X =  132.113   Box Y =  132.113   Box Z =  132.113
     Alpha =  109.471   Beta  =  109.471   Gamma =  109.471
     NFFT1 =  128       NFFT2 =  128       NFFT3 =  128
     Cutoff=   10.000   Tol   =0.100E-04
     Ewald Coefficient =  0.27511
     Interpolation order =    4

    LOADING THE CONSTRAINED ATOMS AS GROUPS

   5.  REFERENCE ATOM COORDINATES

  default_name
     Mask !:WAT; matches  4436 atoms

--------------------------------------------------------------------------------
   3.  ATOMIC COORDINATES AND VELOCITIES
--------------------------------------------------------------------------------

default_name
 begin time read from input coords =     0.000 ps

 Number of triangulated 3-point waters found:    53009

     Sum of charges from parm topology file =  23.99999953
     Assuming uniform neutralizing plasma

--------------------------------------------------------------------------------
   4.  RESULTS
 NSTEP =        0   TIME(PS) =       0.000  TEMP(K) =   297.63  PRESS = -4759.1
 Etot   =   -615012.4517  EKtot   =     97357.6460  EPtot      =   -712370.0977
 BOND   =       149.7680  ANGLE   =       572.0778  DIHED      =      3755.5712
 1-4 NB =       888.7919  1-4 EEL =     17970.7086  VDWAALS    =    125835.8823
 EELEC  =   -861542.8974  EHBOND  =         0.0000  RESTRAINT  =         0.0000
 EKCMT  =     31622.7956  VIRIAL  =    214018.0321  VOLUME     =   1775064.2821
                                                    Density    =         0.9238
 ------------------------------------------------------------------------------

      A V E R A G E S   O V E R      20 S T E P S

 NSTEP =    10000   TIME(PS) =      20.000  TEMP(K) =   293.07  PRESS =   -21.4
 Etot   =   -413251.2060  EKtot   =     95866.3082  EPtot      =   -509117.5142
 BOND   =       829.6326  ANGLE   =      2017.0790  DIHED      =      3871.6511
 1-4 NB =       971.4943  1-4 EEL =     17942.2789  VDWAALS    =     77340.1500
 EELEC  =   -613164.1403  EHBOND  =         0.0000  RESTRAINT  =      1074.3402
 EAMBER (non-restraint)  =   -510191.8544
 EKCMT  =     46554.7489  VIRIAL  =     47338.2621  VOLUME     =   1677914.6748
                                                    Density    =         0.9773
 ------------------------------------------------------------------------------

      R M S  F L U C T U A T I O N S

 NSTEP =    10000   TIME(PS) =      20.000  TEMP(K) =    16.33  PRESS =   105.7
 Etot   =     15513.1112  EKtot   =      5340.2253  EPtot      =     10195.6968
 BOND   =        55.9708  ANGLE   =        99.3888  DIHED      =        20.8168
 1-4 NB =        11.4201  1-4 EEL =        28.3322  VDWAALS    =      3925.5299
 EELEC  =     13930.8653  EHBOND  =         0.0000  RESTRAINT  =        32.6481
 EAMBER (non-restraint)  =     10163.0487
 EKCMT  =      2053.3291  VIRIAL  =      2515.0289  VOLUME     =      5775.7219
                                                    Density    =         0.0033
 ------------------------------------------------------------------------------
