-------------------------------------------------------
          Amber 22 PMEMD                              2022
          -------------------------------------------------------

  [-O]verwriting output

File Assignments:

 Here is the input file:

&cntrl
  timlim = 999999, nmropt = 0,       imin = 0,
  ntx    = 1,       irest  = 0,       ntrx = 1,      ntxo   = 1,
  ntpr   = 500,     ntwx   = 500,     ntwv = 0,      ntwe   = 0,
  ntwr   = 5000,
  ntf    = 2,       ntb    = 2,
  cut    = 10.0,    nsnb   = 20,
  nstlim = 10000,   nscm   = 2500,   iwrap = 1,
  t      = 0.0,     dt     = 0.002,
  temp0  = 300.0,   tempi  = 200.0,    tautp=0.5,
  ntt    = 1,
  ntp    =1 ,       taup = 1.0,
  ntc    = 2,       tol    = 0.00001,
  ibelly=0, ntr=1,
  restraintmask="!:WAT" , restraint_wt=10.0,
&end

Note: ig = -1. Setting random seed to   116739 based on wallclock time in
      microseconds.

--------------------------------------------------------------------------------
   1.  RESOURCE   USE:
--------------------------------------------------------------------------------

 getting box info from netcdf restart file
 NATOM  =   39264 NTYPES =      12 NBONH =   38848 MBONA  =     418
 NTHETH =     872 MTHETA =     550 NPHIH =    1894 MPHIA  =    1606
 NHPARM =       0 NPARM  =       0 NNB   =   55544 NRES   =   12890
 NBONA  =     418 NTHETA =     550 NPHIA =    1606 NUMBND =      40
 NUMANG =      90 NPTRA  =     113 NATYP =      21 NPHB   =       0
 IFBOX  =       1 NMXRS  =      24 IFCAP =       0 NEXTRA =       0
 NCOPY  =       0

     BOX TYPE: RECTILINEAR

--------------------------------------------------------------------------------
   2.  CONTROL  DATA  FOR  THE  RUN
--------------------------------------------------------------------------------

default_name

General flags:
     imin    =       0, nmropt  =       0

Nature and format of input:
     ntx     =       1, irest   =       0, ntrx    =       1

Nature and format of output:
     ntxo    =       1, ntpr    =     500, ntrx    =       1, ntwr    =    5000
     iwrap   =       1, ntwx    =     500, ntwv    =       0, ntwe    =       0
     ioutfm  =       1, ntwprt  =       0, idecomp =       0, rbornstat=      0

Potential function:
     ntf     =       2, ntb     =       2, igb     =       0, nsnb    =      20
     ipol    =       0, gbsa    =       0, iesp    =       0
     dielc   =   1.00000, cut     =  10.00000, intdiel =   1.00000

Frozen or restrained atoms:
     ibelly  =       0, ntr     =       1
     restraint_wt =  10.00000

Molecular dynamics:
     nstlim  =     10000, nscm    =         0, nrespa  =         1
     t       =   0.00000, dt      =   0.00200, vlimit  =  -1.00000

Berendsen (weak-coupling) temperature regulation:
     temp0   = 300.00000, tempi   = 200.00000, tautp   =   0.50000

Pressure regulation:
     ntp     =       1
     pres0   =   1.00000, comp    =  44.60000, taup    =   1.00000

SHAKE:
     ntc     =       2, jfastw  =       0
     tol     =   0.00001

Ewald parameters:
     verbose =       0, ew_type =       0, nbflag  =       1, use_pme =       1
     vdwmeth =       1, eedmeth =       1, netfrc  =       1
     Box X =   78.672   Box Y =   76.851   Box Z =   79.484
     Alpha =   90.000   Beta  =   90.000   Gamma =   90.000
     NFFT1 =   80       NFFT2 =   80       NFFT3 =   80
     Cutoff=   10.000   Tol   =0.100E-04
     Ewald Coefficient =  0.27511
     Interpolation order =    4

    LOADING THE CONSTRAINED ATOMS AS GROUPS

   5.  REFERENCE ATOM COORDINATES

  default_name
     Mask !:WAT; matches   804 atoms

--------------------------------------------------------------------------------
   3.  ATOMIC COORDINATES AND VELOCITIES
--------------------------------------------------------------------------------

default_name
 begin time read from input coords =     0.000 ps

 Number of triangulated 3-point waters found:    12820

     Sum of charges from parm topology file =   1.99999991
     Assuming uniform neutralizing plasma

--------------------------------------------------------------------------------
   4.  RESULTS
 NSTEP =        0   TIME(PS) =       0.000  TEMP(K) =   297.99  PRESS = -3259.0
 Etot   =   -147679.4942  EKtot   =     23373.5302  EPtot      =   -171053.0244
 BOND   =        26.5375  ANGLE   =        90.3110  DIHED      =       819.6907
 1-4 NB =       160.3404  1-4 EEL =      3110.6791  VDWAALS    =     31958.9423
 EELEC  =   -207219.5255  EHBOND  =         0.0000  RESTRAINT  =         0.0000
 EKCMT  =      7665.6935  VIRIAL  =     41480.8300  VOLUME     =    480561.3557
                                                    Density    =         0.8185
 ------------------------------------------------------------------------------

      A V E R A G E S   O V E R      20 S T E P S

 NSTEP =    10000   TIME(PS) =      20.000  TEMP(K) =   293.18  PRESS =  -145.3
 Etot   =   -100388.9819  EKtot   =     22996.8294  EPtot      =   -123385.8113
 BOND   =       144.1199  ANGLE   =       339.2124  DIHED      =       802.7963
 1-4 NB =       176.7081  1-4 EEL =      3083.0999  VDWAALS    =     18151.1751
 EELEC  =   -146277.7834  EHBOND  =         0.0000  RESTRAINT  =       194.8604
 EAMBER (non-restraint)  =   -123580.6718
 EKCMT  =     11318.4026  VIRIAL  =     12675.8340  VOLUME     =    417536.2739
                                                    Density    =         0.9446
 ------------------------------------------------------------------------------

      R M S  F L U C T U A T I O N S

 NSTEP =    10000   TIME(PS) =      20.000  TEMP(K) =    16.79  PRESS =   144.9
 Etot   =      3082.9264  EKtot   =      1317.0492  EPtot      =      1812.5099
 BOND   =        13.1524  ANGLE   =        19.8973  DIHED      =         6.1420
 1-4 NB =         6.4239  1-4 EEL =         9.6995  VDWAALS    =       983.8971
 EELEC  =      2740.2991  EHBOND  =         0.0000  RESTRAINT  =        10.0409
 EAMBER (non-restraint)  =      1802.4690
 EKCMT  =       520.6305  VIRIAL  =      1192.1215  VOLUME     =     22257.5276
                                                    Density    =         0.0482
 ------------------------------------------------------------------------------
