-------------------------------------------------------
          Amber 18 PMEMD                              2018
          -------------------------------------------------------

  [-O]verwriting output

File Assignments:

 Here is the input file:

heat gfpmut
 &cntrl
  imin=0,irest=1,ntx=5,
  nstlim=250000,dt=0.002,
  ntc=2,ntf=2,
  cut=10.0, ntb=2, ntp=1, taup=1.0,
  ntpr=500, ntwx=500,
  ntt=3, gamma_ln=2.0,
  temp0=300.0,iwrap=1,
  ntr=1, restraintmask=':1-58',
  restraint_wt=10.0,
 /

Note: ig = -1. Setting random seed to   984437 based on wallclock time in
      microseconds.

--------------------------------------------------------------------------------
   1.  RESOURCE   USE:
--------------------------------------------------------------------------------

 getting box info from netcdf restart file
 NATOM  =  163463 NTYPES =      15 NBONH =  161166 MBONA  =    2338
 NTHETH =    4819 MTHETA =    3091 NPHIH =   10511 MPHIA  =    9047
 NHPARM =       0 NPARM  =       0 NNB   =  235854 NRES   =   53366
 NBONA  =    2338 NTHETA =    3091 NPHIA =    9047 NUMBND =      56
 NUMANG =     124 NPTRA  =     146 NATYP =      29 NPHB   =       1
 IFBOX  =       2 NMXRS  =      24 IFCAP =       0 NEXTRA =       0
 NCOPY  =       0

     BOX TYPE: TRUNCATED OCTAHEDRON

--------------------------------------------------------------------------------
   2.  CONTROL  DATA  FOR  THE  RUN
--------------------------------------------------------------------------------

default_name

General flags:
     imin    =       0, nmropt  =       0

Nature and format of input:
     ntx     =       5, irest   =       1, ntrx    =       1

Nature and format of output:
     ntxo    =       2, ntpr    =     500, ntrx    =       1, ntwr    =  250000
     iwrap   =       1, ntwx    =     500, ntwv    =       0, ntwe    =       0
     ioutfm  =       1, ntwprt  =       0, idecomp =       0, rbornstat=      0

Potential function:
     ntf     =       2, ntb     =       2, igb     =       0, nsnb    =      25
     ipol    =       0, gbsa    =       0, iesp    =       0
     dielc   =   1.00000, cut     =  10.00000, intdiel =   1.00000

Frozen or restrained atoms:
     ibelly  =       0, ntr     =       1
     restraint_wt =  10.00000

Molecular dynamics:
     nstlim  =    250000, nscm    =         0, nrespa  =         1
     t       =   0.00000, dt      =   0.00200, vlimit  =  -1.00000

Langevin dynamics temperature regulation:
     ig      =  984437
     temp0   = 300.00000, tempi   =   0.00000, gamma_ln=   2.00000

Pressure regulation:
     ntp     =       1
     pres0   =   1.00000, comp    =  44.60000, taup    =   1.00000

SHAKE:
     ntc     =       2, jfastw  =       0
     tol     =   0.00001

Ewald parameters:
     verbose =       0, ew_type =       0, nbflag  =       1, use_pme =       1
     vdwmeth =       1, eedmeth =       1, netfrc  =       1
     Box X =  129.684   Box Y =  129.684   Box Z =  129.684
     Alpha =  109.471   Beta  =  109.471   Gamma =  109.471
     NFFT1 =  128       NFFT2 =  128       NFFT3 =  128
     Cutoff=   10.000   Tol   =0.100E-04
     Ewald Coefficient =  0.27511
     Interpolation order =    4

    LOADING THE CONSTRAINED ATOMS AS GROUPS

   5.  REFERENCE ATOM COORDINATES

  default_name
     Mask :1-58; matches   659 atoms

--------------------------------------------------------------------------------
   3.  ATOMIC COORDINATES AND VELOCITIES
--------------------------------------------------------------------------------

default_name
 begin time read from input coords =   500.000 ps

 Number of triangulated 3-point waters found:    53009

     Sum of charges from parm topology file =  23.99999953
     Assuming uniform neutralizing plasma

--------------------------------------------------------------------------------
   4.  RESULTS
 NSTEP =      500   TIME(PS) =     501.000  TEMP(K) =   299.21  PRESS =   -60.1
 Etot   =   -408444.4194  EKtot   =     97875.8984  EPtot      =   -506320.3179
 BOND   =       870.7863  ANGLE   =      2105.2435  DIHED      =      3313.7810
 1-4 NB =       972.8961  1-4 EEL =     17833.1551  VDWAALS    =     74411.1558
 EELEC  =   -605984.7639  EHBOND  =         0.0000  RESTRAINT  =       157.4282
 EAMBER (non-restraint)  =   -506477.7461
 EKCMT  =     47402.1662  VIRIAL  =     49578.7990  VOLUME     =   1677974.9409
                                                    Density    =         0.9772
 ------------------------------------------------------------------------------

      A V E R A G E S   O V E R     500 S T E P S

 NSTEP =   250000   TIME(PS) =    1000.000  TEMP(K) =   300.00  PRESS =    -0.8
 Etot   =   -408069.2003  EKtot   =     98134.0718  EPtot      =   -506203.2720
 BOND   =       856.7654  ANGLE   =      2094.0107  DIHED      =      3313.2161
 1-4 NB =       979.7233  1-4 EEL =     17831.4573  VDWAALS    =     74998.4065
 EELEC  =   -606436.1099  EHBOND  =         0.0000  RESTRAINT  =       159.2586
 EAMBER (non-restraint)  =   -506362.5306
 EKCMT  =     47562.3904  VIRIAL  =     47592.0380  VOLUME     =   1678039.3837
                                                    Density    =         0.9772
 ------------------------------------------------------------------------------

      R M S  F L U C T U A T I O N S

 NSTEP =   250000   TIME(PS) =    1000.000  TEMP(K) =     0.72  PRESS =    50.7
 Etot   =       420.4030  EKtot   =       236.2032  EPtot      =       341.5843
 BOND   =        22.8206  ANGLE   =        36.0576  DIHED      =        21.0611
 1-4 NB =        12.2574  1-4 EEL =        39.4415  VDWAALS    =       311.3741
 EELEC  =       509.5676  EHBOND  =         0.0000  RESTRAINT  =         7.8097
 EAMBER (non-restraint)  =       333.7746
 EKCMT  =       167.7100  VIRIAL  =      1848.6825  VOLUME     =      1134.5158
                                                    Density    =         0.0007
 ------------------------------------------------------------------------------
