-------------------------------------------------------
          Amber 18 PMEMD                              2018
          -------------------------------------------------------

  [-O]verwriting output

File Assignments:

 Here is the input file:

heat gfpmut
 &cntrl
  imin=0,irest=1,ntx=5,
  nstlim=250000,dt=0.002,
  ntc=2,ntf=2,
  cut=10.0, ntb=2, ntp=1, taup=1.0,
  ntpr=500, ntwx=500,
  ntt=3, gamma_ln=2.0,
  temp0=300.0,iwrap=1,
  ntr=1, restraintmask=':1-58',
  restraint_wt=10.0,
 /

Note: ig = -1. Setting random seed to    49190 based on wallclock time in
      microseconds.

--------------------------------------------------------------------------------
   1.  RESOURCE   USE:
--------------------------------------------------------------------------------

 getting box info from netcdf restart file
 NATOM  =   17022 NTYPES =      16 NBONH =   12531 MBONA  =    4499
 NTHETH =     996 MTHETA =     630 NPHIH =    1915 MPHIA  =    1560
 NHPARM =       0 NPARM  =       0 NNB   =   33139 NRES   =    4095
 NBONA  =    4499 NTHETA =     630 NPHIA =    1560 NUMBND =      29
 NUMANG =      57 NPTRA  =      36 NATYP =      21 NPHB   =       1
 IFBOX  =       1 NMXRS  =      26 IFCAP =       0 NEXTRA =    4031
 NCOPY  =       0

     BOX TYPE: RECTILINEAR

--------------------------------------------------------------------------------
   2.  CONTROL  DATA  FOR  THE  RUN
--------------------------------------------------------------------------------

General flags:
     imin    =       0, nmropt  =       0

Nature and format of input:
     ntx     =       5, irest   =       1, ntrx    =       1

Nature and format of output:
     ntxo    =       2, ntpr    =     500, ntrx    =       1, ntwr    =  250000
     iwrap   =       1, ntwx    =     500, ntwv    =       0, ntwe    =       0
     ioutfm  =       1, ntwprt  =       0, idecomp =       0, rbornstat=      0

Potential function:
     ntf     =       2, ntb     =       2, igb     =       0, nsnb    =      25
     ipol    =       0, gbsa    =       0, iesp    =       0
     dielc   =   1.00000, cut     =  10.00000, intdiel =   1.00000

Frozen or restrained atoms:
     ibelly  =       0, ntr     =       1
     restraint_wt =  10.00000

Molecular dynamics:
     nstlim  =    250000, nscm    =         0, nrespa  =         1
     t       =   0.00000, dt      =   0.00200, vlimit  =  -1.00000

Langevin dynamics temperature regulation:
     ig      =   49190
     temp0   = 300.00000, tempi   =   0.00000, gamma_ln=   2.00000

Pressure regulation:
     ntp     =       1
     pres0   =   1.00000, comp    =  44.60000, taup    =   1.00000

SHAKE:
     ntc     =       2, jfastw  =       0
     tol     =   0.00001

Extra-points options:
     frameon =       1, chngmask=       1

Ewald parameters:
     verbose =       0, ew_type =       0, nbflag  =       1, use_pme =       1
     vdwmeth =       1, eedmeth =       1, netfrc  =       1
     Box X =   46.861   Box Y =   49.394   Box Z =   56.211
     Alpha =   90.000   Beta  =   90.000   Gamma =   90.000
     NFFT1 =   48       NFFT2 =   56       NFFT3 =   64
     Cutoff=   10.000   Tol   =0.100E-04
     Ewald Coefficient =  0.27511
     Interpolation order =    4

    LOADING THE CONSTRAINED ATOMS AS GROUPS

   5.  REFERENCE ATOM COORDINATES

     Mask :1-58; matches   892 atoms

--------------------------------------------------------------------------------
   3.  ATOMIC COORDINATES AND VELOCITIES
--------------------------------------------------------------------------------

 begin time read from input coords =   500.000 ps

 Number of triangulated 3-point waters found:     4031

     Sum of charges from parm topology file =   0.00000440
     Forcing neutrality...

--------------------------------------------------------------------------------
   4.  RESULTS
 NSTEP =      500   TIME(PS) =     501.000  TEMP(K) =   299.74  PRESS =  -222.4
 Etot   =    -39091.3709  EKtot   =      7875.0645  EPtot      =    -46966.4354
 BOND   =       158.5700  ANGLE   =       379.4915  DIHED      =       579.4870
 1-4 NB =       199.4638  1-4 EEL =      1760.2967  VDWAALS    =      7490.7564
 EELEC  =    -57728.2285  EHBOND  =         0.0000  RESTRAINT  =       193.7276
 EAMBER (non-restraint)  =    -47160.1630
 EKCMT  =      3687.3582  VIRIAL  =      4309.8813  VOLUME     =    129616.9215
                                                    Density    =         1.0166
 ------------------------------------------------------------------------------

      A V E R A G E S   O V E R     500 S T E P S

 NSTEP =   250000   TIME(PS) =    1000.000  TEMP(K) =   299.86  PRESS =    10.5
 Etot   =    -39131.7094  EKtot   =      7878.1739  EPtot      =    -47009.8833
 BOND   =       171.5103  ANGLE   =       388.1479  DIHED      =       574.3543
 1-4 NB =       196.0597  1-4 EEL =      1760.5682  VDWAALS    =      7651.8185
 EELEC  =    -57959.3560  EHBOND  =         0.0000  RESTRAINT  =       207.0138
 EAMBER (non-restraint)  =    -47216.8972
 EKCMT  =      3623.6266  VIRIAL  =      3594.3099  VOLUME     =    129315.0476
                                                    Density    =         1.0190
 ------------------------------------------------------------------------------

      R M S  F L U C T U A T I O N S

 NSTEP =   250000   TIME(PS) =    1000.000  TEMP(K) =     2.41  PRESS =   171.8
 Etot   =       122.6625  EKtot   =        63.3404  EPtot      =       109.5366
 BOND   =        11.2480  ANGLE   =        13.7219  DIHED      =         6.2905
 1-4 NB =         4.4014  1-4 EEL =        12.6458  VDWAALS    =        99.0535
 EELEC  =       174.3501  EHBOND  =         0.0000  RESTRAINT  =         8.8700
 EAMBER (non-restraint)  =       100.6666
 EKCMT  =        43.5949  VIRIAL  =       477.2603  VOLUME     =       328.6966
                                                    Density    =         0.0026
 ------------------------------------------------------------------------------
